/*--------------------------------*- C++ -*----------------------------------*\
  =========                 |
  \\      /  F ield         | OpenFOAM: The Open Source CFD Toolbox
   \\    /   O peration     | Website:  https://openfoam.org
    \\  /    A nd           | Version:  8
     \\/     M anipulation  |
\*---------------------------------------------------------------------------*/
FoamFile
{
    version     2.0;
    format      ascii;
    class       polyBoundaryMesh;
    location    "constant/polyMesh";
    object      boundary;
}
// * * * * * * * * * * * * * * * * * * * * * * * * * * * * * * * * * * * * * //

6
(
    inletFuel
    {
        type            patch;
        nFaces          60;
        startFace       45290;
    }
    inletAir
    {
        type            patch;
        nFaces          60;
        startFace       45350;
    }
    outlet
    {
        type            patch;
        nFaces          120;
        startFace       45410;
    }
    bottom
    {
        type            patch;
        nFaces          190;
        startFace       45530;
    }
    top
    {
        type            patch;
        nFaces          190;
        startFace       45720;
    }
    frontAndBack
    {
        type            empty;
        inGroups        List<word> 1(empty);
        nFaces          45600;
        startFace       45910;
    }
)

// ************************************************************************* //
