/*--------------------------------*- C++ -*----------------------------------*\
| =========                 |                                                 |
| \\      /  F ield         | OpenFOAM: The Open Source CFD Toolbox           |
|  \\    /   O peration     |                                                 |
|   \\  /    A nd           |                                                 |
|    \\/     M anipulation  |                                                 |
\*---------------------------------------------------------------------------*/
FoamFile
{
    version     2.0;
    format      ascii;
    class       volScalarField;
    location    "0";
    object      p;
}
// * * * * * * * * * * * * * * * * * * * * * * * * * * * * * * * * * * * * * //

dimensions      [1 -1 -2 0 0 0 0];

internalField   uniform 101325;

boundaryField
{
    inletAir
    {
        type        zeroGradient;
    }

    inletFuel
    {
        type        zeroGradient;
    }

    top
    {
        type        fixedValue;
        value       uniform 101325;
    }

    bottom
    {
        type        fixedValue;
        value       uniform 101325;
    }

    outlet
    {
        type        fixedValue;
        value       uniform 101325;
    }

    frontAndBack
    {
        type        empty;
    }
}

// ************************************************************************* //
